# generated using pymatgen
data_LiNiO2
_symmetry_space_group_name_H-M   'P 1'
_cell_length_a   2.85733078
_cell_length_b   2.85733078
_cell_length_c   14.06156851
_cell_angle_alpha   90.00000000
_cell_angle_beta   90.00000000
_cell_angle_gamma   120.00000000
_symmetry_Int_Tables_number   1
_chemical_formula_structural   LiNiO2
_chemical_formula_sum   'Li3 Ni3 O6'
_cell_volume   99.42267350
_cell_formula_units_Z   3
loop_
 _symmetry_equiv_pos_site_id
 _symmetry_equiv_pos_as_xyz
  1  'x, y, z'
loop_
 _atom_type_symbol
 _atom_type_oxidation_number
  Li+  1.0
  Ni3+  3.0
  O2-  -2.0
loop_
 _atom_site_type_symbol
 _atom_site_label
 _atom_site_symmetry_multiplicity
 _atom_site_fract_x
 _atom_site_fract_y
 _atom_site_fract_z
 _atom_site_occupancy
  Li+  Li0  1  0.00000000  0.00000000  0.00000000  1
  Li+  Li1  1  0.66666667  0.33333333  0.33333333  1
  Li+  Li2  1  0.33333333  0.66666667  0.66666667  1
  Ni3+  Ni3  1  0.33333333  0.66666667  0.16666667  1
  Ni3+  Ni4  1  1.00000000  1.00000000  0.50000000  1
  Ni3+  Ni5  1  0.66666667  0.33333333  0.83333333  1
  O2-  O6  1  0.66666667  0.33333333  0.09234933  1
  O2-  O7  1  0.00000000  0.00000000  0.24098400  1
  O2-  O8  1  0.33333333  0.66666667  0.42568267  1
  O2-  O9  1  0.66666667  0.33333333  0.57431733  1
  O2-  O10  1  0.00000000  0.00000000  0.75901600  1
  O2-  O11  1  0.33333333  0.66666667  0.90765067  1
