# generated using pymatgen
data_LiNiO2
_symmetry_space_group_name_H-M   'P 1'
_cell_length_a   5.02038948
_cell_length_b   5.80254222
_cell_length_c   6.49911346
_cell_angle_alpha   102.70390799
_cell_angle_beta   97.42281409
_cell_angle_gamma   106.50559706
_symmetry_Int_Tables_number   1
_chemical_formula_structural   LiNiO2
_chemical_formula_sum   'Li5 Ni5 O10'
_cell_volume   173.32226422
_cell_formula_units_Z   5
loop_
 _symmetry_equiv_pos_site_id
 _symmetry_equiv_pos_as_xyz
  1  'x, y, z'
loop_
 _atom_type_symbol
 _atom_type_oxidation_number
  Li+  1.0
  Ni3+  3.0
  O2-  -2.0
loop_
 _atom_site_type_symbol
 _atom_site_label
 _atom_site_symmetry_multiplicity
 _atom_site_fract_x
 _atom_site_fract_y
 _atom_site_fract_z
 _atom_site_occupancy
  Li+  Li0  1  0.00000000  0.00000000  0.00000000  1
  Li+  Li1  1  0.20093700  0.39911300  0.39728100  1
  Li+  Li2  1  0.39583400  0.79621600  0.79726300  1
  Li+  Li3  1  0.60416600  0.20378400  0.20273700  1
  Li+  Li4  1  0.79906300  0.60088700  0.60271900  1
  Ni3+  Ni5  1  0.40184200  0.30103800  0.79933400  1
  Ni3+  Ni6  1  0.59815800  0.69896200  0.20066600  1
  Ni3+  Ni7  1  0.80111900  0.10129700  0.60083200  1
  Ni3+  Ni8  1  0.00000000  0.50000000  0.00000000  1
  Ni3+  Ni9  1  0.19888100  0.89870300  0.39916800  1
  O2-  O10  1  0.90423800  0.55943400  0.28278600  1
  O2-  O11  1  0.89994900  0.03146400  0.31624100  1
  O2-  O12  1  0.09576200  0.44056600  0.71721400  1
  O2-  O13  1  0.10005100  0.96853600  0.68375900  1
  O2-  O14  1  0.29479600  0.36685500  0.08936900  1
  O2-  O15  1  0.28718600  0.83002000  0.11069900  1
  O2-  O16  1  0.50542200  0.23133100  0.50752900  1
  O2-  O17  1  0.49457800  0.76866900  0.49247100  1
  O2-  O18  1  0.71281400  0.16998000  0.88930100  1
  O2-  O19  1  0.70520400  0.63314500  0.91063100  1
