# generated using pymatgen
data_LiNiO2
_symmetry_space_group_name_H-M   'P 1'
_cell_length_a   8.57199233
_cell_length_b   5.73197444
_cell_length_c   46.59060159
_cell_angle_alpha   92.00714022
_cell_angle_beta   91.75720699
_cell_angle_gamma   90.00000000
_symmetry_Int_Tables_number   1
_chemical_formula_structural   LiNiO2
_chemical_formula_sum   'Li9 Ni9 O18'
_cell_volume   2286.72149053
_cell_formula_units_Z   9
loop_
 _symmetry_equiv_pos_site_id
 _symmetry_equiv_pos_as_xyz
  1  'x, y, z'
loop_
 _atom_site_type_symbol
 _atom_site_label
 _atom_site_symmetry_multiplicity
 _atom_site_fract_x
 _atom_site_fract_y
 _atom_site_fract_z
 _atom_site_occupancy
  Li  Li0  1  0.00000000  0.00000000  0.89962155  1
  Li  Li1  1  0.33333333  0.00000000  0.89962155  1
  Li  Li2  1  0.66666667  0.00000000  0.89962155  1
  Li  Li3  1  0.15942029  0.73913043  0.85614329  1
  Li  Li4  1  0.49275362  0.73913043  0.85614329  1
  Li  Li5  1  0.82608696  0.73913043  0.85614329  1
  Li  Li6  1  0.31884058  0.47826087  0.81266502  1
  Li  Li7  1  0.65217391  0.47826087  0.81266502  1
  Li  Li8  1  0.98550725  0.47826087  0.81266502  1
  Ni  Ni9  1  0.00000000  0.50000000  0.89962155  1
  Ni  Ni10  1  0.33333333  0.50000000  0.89962155  1
  Ni  Ni11  1  0.66666667  0.50000000  0.89962155  1
  Ni  Ni12  1  0.15942029  0.23913043  0.85614329  1
  Ni  Ni13  1  0.49275362  0.23913043  0.85614329  1
  Ni  Ni14  1  0.82608696  0.23913043  0.85614329  1
  Ni  Ni15  1  0.31884058  0.97826087  0.81266502  1
  Ni  Ni16  1  0.65217391  0.97826087  0.81266502  1
  Ni  Ni17  1  0.98550725  0.97826087  0.81266502  1
  O  O18  1  0.16640533  0.26764000  0.89805355  1
  O  O19  1  0.49973867  0.26764000  0.89805355  1
  O  O20  1  0.83307200  0.26764000  0.89805355  1
  O  O21  1  0.32634829  0.47149043  0.85771129  1
  O  O22  1  0.65968162  0.47149043  0.85771129  1
  O  O23  1  0.99301496  0.47149043  0.85771129  1
  O  O24  1  0.32582562  0.00677043  0.85457529  1
  O  O25  1  0.65915896  0.00677043  0.85457529  1
  O  O26  1  0.99249229  0.00677043  0.85457529  1
  O  O27  1  0.15243525  0.21062087  0.81423302  1
  O  O28  1  0.48576858  0.21062087  0.81423302  1
  O  O29  1  0.81910191  0.21062087  0.81423302  1
  O  O30  1  0.15191258  0.74590087  0.81109702  1
  O  O31  1  0.48524591  0.74590087  0.81109702  1
  O  O32  1  0.81857925  0.74590087  0.81109702  1
  O  O33  1  0.31185554  0.94975130  0.77075476  1
  O  O34  1  0.64518887  0.94975130  0.77075476  1
  O  O35  1  0.97852220  0.94975130  0.77075476  1
