# generated using pymatgen
data_Li27Ni27H10C5(NO29)2
_symmetry_space_group_name_H-M   'P 1'
_cell_length_a   8.71603685
_cell_length_b   17.57002403
_cell_length_c   26.18722097
_cell_angle_alpha   90.00000000
_cell_angle_beta   90.00000000
_cell_angle_gamma   90.00000152
_symmetry_Int_Tables_number   1
_chemical_formula_structural   Li27Ni27H10C5(NO29)2
_chemical_formula_sum   'Li27 Ni27 H10 C5 N2 O58'
_cell_volume   4010.33660195
_cell_formula_units_Z   1
loop_
 _symmetry_equiv_pos_site_id
 _symmetry_equiv_pos_as_xyz
  1  'x, y, z'
loop_
 _atom_site_type_symbol
 _atom_site_label
 _atom_site_symmetry_multiplicity
 _atom_site_fract_x
 _atom_site_fract_y
 _atom_site_fract_z
 _atom_site_occupancy
  Li  Li0  1  -0.00000035  0.83072587  0.07875608  1
  Li  Li1  1  -0.00000018  0.49739279  0.07875616  1
  Li  Li2  1  -0.00000002  0.16405970  0.07875624  1
  Li  Li3  1  0.16666632  0.74869602  0.15751232  1
  Li  Li4  1  0.16666649  0.41536293  0.15751240  1
  Li  Li5  1  0.16666666  0.08202985  0.15751247  1
  Li  Li6  1  -0.00000033  0.66666616  0.23626855  1
  Li  Li7  1  -0.00000017  0.33333308  0.23626863  1
  Li  Li8  1  0.00000000  0.00000000  0.23626871  1
  Li  Li9  1  0.33333298  0.83072587  0.07875608  1
  Li  Li10  1  0.33333315  0.49739279  0.07875616  1
  Li  Li11  1  0.33333332  0.16405970  0.07875624  1
  Li  Li12  1  0.49999966  0.74869602  0.15751232  1
  Li  Li13  1  0.49999982  0.41536293  0.15751240  1
  Li  Li14  1  0.49999999  0.08202985  0.15751247  1
  Li  Li15  1  0.33333300  0.66666616  0.23626855  1
  Li  Li16  1  0.33333317  0.33333308  0.23626863  1
  Li  Li17  1  0.33333333  0.00000000  0.23626871  1
  Li  Li18  1  0.66666632  0.83072587  0.07875608  1
  Li  Li19  1  0.66666648  0.49739279  0.07875616  1
  Li  Li20  1  0.66666665  0.16405970  0.07875624  1
  Li  Li21  1  0.83333299  0.74869602  0.15751232  1
  Li  Li22  1  0.83333316  0.41536293  0.15751240  1
  Li  Li23  1  0.83333332  0.08202985  0.15751247  1
  Li  Li24  1  0.66666633  0.66666616  0.23626855  1
  Li  Li25  1  0.66666650  0.33333308  0.23626863  1
  Li  Li26  1  0.66666667  0.00000000  0.23626871  1
  Ni  Ni27  1  -0.00000035  0.33072587  0.07875608  1
  Ni  Ni28  1  -0.00000018  0.99739279  0.07875616  1
  Ni  Ni29  1  -0.00000002  0.66405970  0.07875624  1
  Ni  Ni30  1  0.16666632  0.24869602  0.15751232  1
  Ni  Ni31  1  0.16666649  0.91536293  0.15751240  1
  Ni  Ni32  1  0.16666666  0.58202985  0.15751247  1
  Ni  Ni33  1  -0.00000033  0.16666616  0.23626855  1
  Ni  Ni34  1  -0.00000017  0.83333308  0.23626863  1
  Ni  Ni35  1  0.00000000  0.50000000  0.23626871  1
  Ni  Ni36  1  0.33333298  0.33072587  0.07875608  1
  Ni  Ni37  1  0.33333315  0.99739279  0.07875616  1
  Ni  Ni38  1  0.33333332  0.66405970  0.07875624  1
  Ni  Ni39  1  0.49999966  0.24869602  0.15751232  1
  Ni  Ni40  1  0.49999982  0.91536293  0.15751240  1
  Ni  Ni41  1  0.49999999  0.58202985  0.15751247  1
  Ni  Ni42  1  0.33333300  0.16666616  0.23626855  1
  Ni  Ni43  1  0.33333317  0.83333308  0.23626863  1
  Ni  Ni44  1  0.33333333  0.50000000  0.23626871  1
  Ni  Ni45  1  0.66666632  0.33072587  0.07875608  1
  Ni  Ni46  1  0.66666648  0.99739279  0.07875616  1
  Ni  Ni47  1  0.66666665  0.66405970  0.07875624  1
  Ni  Ni48  1  0.83333299  0.24869602  0.15751232  1
  Ni  Ni49  1  0.83333316  0.91536293  0.15751240  1
  Ni  Ni50  1  0.83333332  0.58202985  0.15751247  1
  Ni  Ni51  1  0.66666633  0.16666616  0.23626855  1
  Ni  Ni52  1  0.66666650  0.83333308  0.23626863  1
  Ni  Ni53  1  0.66666667  0.50000000  0.23626871  1
  H  H54  1  0.25542890  -0.21333405  0.03619705  1
  H  H55  1  0.05381335  -0.23300797  0.04209679  1
  H  H56  1  0.15829291  -0.26537766  -0.01295360  1
  H  H57  1  -0.25437509  -0.02816853  0.00494050  1
  H  H58  1  -0.20930360  0.02488555  -0.05254091  1
  H  H59  1  0.04356366  -0.03112789  -0.04938727  1
  H  H60  1  -0.03601255  0.17520266  0.05957771  1
  H  H61  1  0.23141172  0.22983146  0.03977995  1
  H  H62  1  0.18192620  0.21162936  -0.02521794  1
  H  H63  1  0.08692300  0.28554715  0.00915848  1
  C  C64  1  0.14734600  -0.22050371  0.01567062  1
  C  C65  1  -0.16647743  0.00150738  -0.01673141  1
  C  C66  1  -0.02433109  -0.11459967  0.00201426  1
  C  C67  1  -0.01070766  0.11259780  -0.00541718  1
  C  C68  1  0.13735999  0.22859961  0.01204097  1
  N  N69  1  -0.04291360  -0.05011317  -0.02673889  1
  N  N70  1  0.02154784  0.17176498  0.02604399  1
  O  O71  1  -0.00000019  0.33463374  0.00244325  1
  O  O72  1  -0.00000003  0.00130066  0.00244333  1
  O  O73  1  -0.00000036  0.66796750  0.00244349  1
  O  O74  1  0.16666665  0.40884793  0.07631259  1
  O  O75  1  0.16666632  0.07551476  0.07631275  1
  O  O76  1  0.16666648  0.74218168  0.07631283  1
  O  O77  1  0.16666648  0.25260389  0.08119949  1
  O  O78  1  0.16666665  0.91927081  0.08119957  1
  O  O79  1  0.16666632  0.58593765  0.08119973  1
  O  O80  1  -0.00000001  0.32681807  0.15506883  1
  O  O81  1  -0.00000034  0.99348491  0.15506898  1
  O  O82  1  -0.00000018  0.66015183  0.15506906  1
  O  O83  1  -0.00000018  0.17057404  0.15995573  1
  O  O84  1  -0.00000001  0.83724096  0.15995581  1
  O  O85  1  -0.00000034  0.50390779  0.15995597  1
  O  O86  1  0.16666667  0.24478822  0.23382506  1
  O  O87  1  0.16666633  0.91145506  0.23382522  1
  O  O88  1  0.16666650  0.57812198  0.23382530  1
  O  O89  1  0.33333314  0.33463374  0.00244325  1
  O  O90  1  0.33333331  0.00130066  0.00244333  1
  O  O91  1  0.33333297  0.66796750  0.00244349  1
  O  O92  1  0.49999998  0.40884793  0.07631259  1
  O  O93  1  0.49999965  0.07551476  0.07631275  1
  O  O94  1  0.49999982  0.74218168  0.07631283  1
  O  O95  1  0.49999982  0.25260389  0.08119949  1
  O  O96  1  0.49999998  0.91927081  0.08119957  1
  O  O97  1  0.49999965  0.58593765  0.08119973  1
  O  O98  1  0.33333332  0.32681807  0.15506883  1
  O  O99  1  0.33333299  0.99348491  0.15506898  1
  O  O100  1  0.33333316  0.66015183  0.15506906  1
  O  O101  1  0.33333316  0.17057404  0.15995573  1
  O  O102  1  0.33333332  0.83724096  0.15995581  1
  O  O103  1  0.33333299  0.50390779  0.15995597  1
  O  O104  1  0.50000000  0.24478822  0.23382506  1
  O  O105  1  0.49999967  0.91145506  0.23382522  1
  O  O106  1  0.49999983  0.57812198  0.23382530  1
  O  O107  1  0.66666647  0.33463374  0.00244325  1
  O  O108  1  0.66666664  0.00130066  0.00244333  1
  O  O109  1  0.66666631  0.66796750  0.00244349  1
  O  O110  1  0.83333332  0.40884793  0.07631259  1
  O  O111  1  0.83333298  0.07551476  0.07631275  1
  O  O112  1  0.83333315  0.74218168  0.07631283  1
  O  O113  1  0.83333315  0.25260389  0.08119949  1
  O  O114  1  0.83333332  0.91927081  0.08119957  1
  O  O115  1  0.83333298  0.58593765  0.08119973  1
  O  O116  1  0.66666666  0.32681807  0.15506883  1
  O  O117  1  0.66666632  0.99348491  0.15506898  1
  O  O118  1  0.66666649  0.66015183  0.15506906  1
  O  O119  1  0.66666649  0.17057404  0.15995573  1
  O  O120  1  0.66666666  0.83724096  0.15995581  1
  O  O121  1  0.66666632  0.50390779  0.15995597  1
  O  O122  1  0.83333333  0.24478822  0.23382506  1
  O  O123  1  0.83333300  0.91145506  0.23382522  1
  O  O124  1  0.83333317  0.57812198  0.23382530  1
  O  O125  1  0.11363269  -0.14864190  -0.01109743  1
  O  O126  1  -0.12184193  0.06618571  0.01668085  1
  O  O127  1  -0.11595394  -0.13937554  0.03376458  1
  O  O128  1  0.04818313  0.09979226  -0.04768181  1
