# generated using pymatgen
data_Li27Ni27H13C4(NO18)3
_symmetry_space_group_name_H-M   'P 1'
_cell_length_a   8.71603685
_cell_length_b   17.57002403
_cell_length_c   26.18722097
_cell_angle_alpha   90.00000000
_cell_angle_beta   90.00000000
_cell_angle_gamma   90.00000152
_symmetry_Int_Tables_number   1
_chemical_formula_structural   Li27Ni27H13C4(NO18)3
_chemical_formula_sum   'Li27 Ni27 H13 C4 N3 O54'
_cell_volume   4010.33660195
_cell_formula_units_Z   1
loop_
 _symmetry_equiv_pos_site_id
 _symmetry_equiv_pos_as_xyz
  1  'x, y, z'
loop_
 _atom_site_type_symbol
 _atom_site_label
 _atom_site_symmetry_multiplicity
 _atom_site_fract_x
 _atom_site_fract_y
 _atom_site_fract_z
 _atom_site_occupancy
  Li  Li0  1  -0.00000035  0.83072587  0.07875608  1
  Li  Li1  1  -0.00000018  0.49739279  0.07875616  1
  Li  Li2  1  -0.00000002  0.16405970  0.07875624  1
  Li  Li3  1  0.16666632  0.74869602  0.15751232  1
  Li  Li4  1  0.16666649  0.41536293  0.15751240  1
  Li  Li5  1  0.16666666  0.08202985  0.15751247  1
  Li  Li6  1  -0.00000033  0.66666616  0.23626855  1
  Li  Li7  1  -0.00000017  0.33333308  0.23626863  1
  Li  Li8  1  0.00000000  0.00000000  0.23626871  1
  Li  Li9  1  0.33333298  0.83072587  0.07875608  1
  Li  Li10  1  0.33333315  0.49739279  0.07875616  1
  Li  Li11  1  0.33333332  0.16405970  0.07875624  1
  Li  Li12  1  0.49999966  0.74869602  0.15751232  1
  Li  Li13  1  0.49999982  0.41536293  0.15751240  1
  Li  Li14  1  0.49999999  0.08202985  0.15751247  1
  Li  Li15  1  0.33333300  0.66666616  0.23626855  1
  Li  Li16  1  0.33333317  0.33333308  0.23626863  1
  Li  Li17  1  0.33333333  0.00000000  0.23626871  1
  Li  Li18  1  0.66666632  0.83072587  0.07875608  1
  Li  Li19  1  0.66666648  0.49739279  0.07875616  1
  Li  Li20  1  0.66666665  0.16405970  0.07875624  1
  Li  Li21  1  0.83333299  0.74869602  0.15751232  1
  Li  Li22  1  0.83333316  0.41536293  0.15751240  1
  Li  Li23  1  0.83333332  0.08202985  0.15751247  1
  Li  Li24  1  0.66666633  0.66666616  0.23626855  1
  Li  Li25  1  0.66666650  0.33333308  0.23626863  1
  Li  Li26  1  0.66666667  0.00000000  0.23626871  1
  Ni  Ni27  1  -0.00000035  0.33072587  0.07875608  1
  Ni  Ni28  1  -0.00000018  0.99739279  0.07875616  1
  Ni  Ni29  1  -0.00000002  0.66405970  0.07875624  1
  Ni  Ni30  1  0.16666632  0.24869602  0.15751232  1
  Ni  Ni31  1  0.16666649  0.91536293  0.15751240  1
  Ni  Ni32  1  0.16666666  0.58202985  0.15751247  1
  Ni  Ni33  1  -0.00000033  0.16666616  0.23626855  1
  Ni  Ni34  1  -0.00000017  0.83333308  0.23626863  1
  Ni  Ni35  1  0.00000000  0.50000000  0.23626871  1
  Ni  Ni36  1  0.33333298  0.33072587  0.07875608  1
  Ni  Ni37  1  0.33333315  0.99739279  0.07875616  1
  Ni  Ni38  1  0.33333332  0.66405970  0.07875624  1
  Ni  Ni39  1  0.49999966  0.24869602  0.15751232  1
  Ni  Ni40  1  0.49999982  0.91536293  0.15751240  1
  Ni  Ni41  1  0.49999999  0.58202985  0.15751247  1
  Ni  Ni42  1  0.33333300  0.16666616  0.23626855  1
  Ni  Ni43  1  0.33333317  0.83333308  0.23626863  1
  Ni  Ni44  1  0.33333333  0.50000000  0.23626871  1
  Ni  Ni45  1  0.66666632  0.33072587  0.07875608  1
  Ni  Ni46  1  0.66666648  0.99739279  0.07875616  1
  Ni  Ni47  1  0.66666665  0.66405970  0.07875624  1
  Ni  Ni48  1  0.83333299  0.24869602  0.15751232  1
  Ni  Ni49  1  0.83333316  0.91536293  0.15751240  1
  Ni  Ni50  1  0.83333332  0.58202985  0.15751247  1
  Ni  Ni51  1  0.66666633  0.16666616  0.23626855  1
  Ni  Ni52  1  0.66666650  0.83333308  0.23626863  1
  Ni  Ni53  1  0.66666667  0.50000000  0.23626871  1
  H  H54  1  0.29447039  0.70142580  0.33573555  1
  H  H55  1  0.38372834  0.68592477  0.39561203  1
  H  H56  1  0.48936695  0.72901563  0.34523082  1
  H  H57  1  0.69004553  0.61213577  0.35029613  1
  H  H58  1  0.57395990  0.58468477  0.40312630  1
  H  H59  1  0.38840114  0.46935242  0.36036972  1
  H  H60  1  0.52099133  0.43275089  0.40600521  1
  H  H61  1  0.44869187  0.60101411  0.29960156  1
  H  H62  1  0.72246834  0.48255729  0.34739593  1
  H  H63  1  0.51693800  0.38156842  0.29903889  1
  H  H64  1  0.30569698  0.32054577  0.35337582  1
  H  H65  1  0.45577737  0.25821820  0.33341653  1
  H  H66  1  0.45829015  0.29756974  0.39570070  1
  C  C67  1  0.40220690  0.68522007  0.35421729  1
  C  C68  1  0.58730817  0.57897582  0.36127665  1
  C  C69  1  0.50356742  0.44452200  0.36489196  1
  C  C70  1  0.43044000  0.30942144  0.35566527  1
  N  N71  1  0.44379840  0.60731786  0.33846908  1
  N  N72  1  0.61146795  0.50066084  0.34381382  1
  N  N73  1  0.52838766  0.37238211  0.33751467  1
  O  O74  1  -0.00000019  0.33463374  0.00244325  1
  O  O75  1  -0.00000003  0.00130066  0.00244333  1
  O  O76  1  -0.00000036  0.66796750  0.00244349  1
  O  O77  1  0.16666665  0.40884793  0.07631259  1
  O  O78  1  0.16666632  0.07551476  0.07631275  1
  O  O79  1  0.16666648  0.74218168  0.07631283  1
  O  O80  1  0.16666648  0.25260389  0.08119949  1
  O  O81  1  0.16666665  0.91927081  0.08119957  1
  O  O82  1  0.16666632  0.58593765  0.08119973  1
  O  O83  1  -0.00000001  0.32681807  0.15506883  1
  O  O84  1  -0.00000034  0.99348491  0.15506898  1
  O  O85  1  -0.00000018  0.66015183  0.15506906  1
  O  O86  1  -0.00000018  0.17057404  0.15995573  1
  O  O87  1  -0.00000001  0.83724096  0.15995581  1
  O  O88  1  -0.00000034  0.50390779  0.15995597  1
  O  O89  1  0.16666667  0.24478822  0.23382506  1
  O  O90  1  0.16666633  0.91145506  0.23382522  1
  O  O91  1  0.16666650  0.57812198  0.23382530  1
  O  O92  1  0.33333314  0.33463374  0.00244325  1
  O  O93  1  0.33333331  0.00130066  0.00244333  1
  O  O94  1  0.33333297  0.66796750  0.00244349  1
  O  O95  1  0.49999998  0.40884793  0.07631259  1
  O  O96  1  0.49999965  0.07551476  0.07631275  1
  O  O97  1  0.49999982  0.74218168  0.07631283  1
  O  O98  1  0.49999982  0.25260389  0.08119949  1
  O  O99  1  0.49999998  0.91927081  0.08119957  1
  O  O100  1  0.49999965  0.58593765  0.08119973  1
  O  O101  1  0.33333332  0.32681807  0.15506883  1
  O  O102  1  0.33333299  0.99348491  0.15506898  1
  O  O103  1  0.33333316  0.66015183  0.15506906  1
  O  O104  1  0.33333316  0.17057404  0.15995573  1
  O  O105  1  0.33333332  0.83724096  0.15995581  1
  O  O106  1  0.33333299  0.50390779  0.15995597  1
  O  O107  1  0.50000000  0.24478822  0.23382506  1
  O  O108  1  0.49999967  0.91145506  0.23382522  1
  O  O109  1  0.49999983  0.57812198  0.23382530  1
  O  O110  1  0.66666647  0.33463374  0.00244325  1
  O  O111  1  0.66666664  0.00130066  0.00244333  1
  O  O112  1  0.66666631  0.66796750  0.00244349  1
  O  O113  1  0.83333332  0.40884793  0.07631259  1
  O  O114  1  0.83333298  0.07551476  0.07631275  1
  O  O115  1  0.83333315  0.74218168  0.07631283  1
  O  O116  1  0.83333315  0.25260389  0.08119949  1
  O  O117  1  0.83333332  0.91927081  0.08119957  1
  O  O118  1  0.83333298  0.58593765  0.08119973  1
  O  O119  1  0.66666666  0.32681807  0.15506883  1
  O  O120  1  0.66666632  0.99348491  0.15506898  1
  O  O121  1  0.66666649  0.66015183  0.15506906  1
  O  O122  1  0.66666649  0.17057404  0.15995573  1
  O  O123  1  0.66666666  0.83724096  0.15995581  1
  O  O124  1  0.66666632  0.50390779  0.15995597  1
  O  O125  1  0.83333333  0.24478822  0.23382506  1
  O  O126  1  0.83333300  0.91145506  0.23382522  1
  O  O127  1  0.83333317  0.57812198  0.23382530  1
