# generated using pymatgen
data_LiNiO2
_symmetry_space_group_name_H-M   'P 1'
_cell_length_a   8.57199233
_cell_length_b   17.19592333
_cell_length_c   20.42483770
_cell_angle_alpha   97.82147664
_cell_angle_beta   90.00000000
_cell_angle_gamma   90.00000000
_symmetry_Int_Tables_number   1
_chemical_formula_structural   LiNiO2
_chemical_formula_sum   'Li27 Ni27 O54'
_cell_volume   2982.68020504
_cell_formula_units_Z   27
loop_
 _symmetry_equiv_pos_site_id
 _symmetry_equiv_pos_as_xyz
  1  'x, y, z'
loop_
 _atom_site_type_symbol
 _atom_site_label
 _atom_site_symmetry_multiplicity
 _atom_site_fract_x
 _atom_site_fract_y
 _atom_site_fract_z
 _atom_site_occupancy
  Li  Li0  1  0.33333333  0.00000000  0.95011705  1
  Li  Li1  1  0.33333333  0.33333333  0.95011705  1
  Li  Li2  1  0.33333333  0.66666667  0.95011705  1
  Li  Li3  1  0.66666667  0.00000000  0.95011705  1
  Li  Li4  1  0.66666667  0.33333333  0.95011705  1
  Li  Li5  1  0.66666667  0.66666667  0.95011705  1
  Li  Li6  1  0.00000000  0.00000000  0.95011705  1
  Li  Li7  1  0.00000000  0.33333333  0.95011705  1
  Li  Li8  1  0.00000000  0.66666667  0.95011705  1
  Li  Li9  1  0.16666667  0.06666667  0.85011705  1
  Li  Li10  1  0.16666667  0.40000000  0.85011705  1
  Li  Li11  1  0.16666667  0.73333333  0.85011705  1
  Li  Li12  1  0.50000000  0.06666667  0.85011705  1
  Li  Li13  1  0.50000000  0.40000000  0.85011705  1
  Li  Li14  1  0.50000000  0.73333333  0.85011705  1
  Li  Li15  1  0.83333333  0.06666667  0.85011705  1
  Li  Li16  1  0.83333333  0.40000000  0.85011705  1
  Li  Li17  1  0.83333333  0.73333333  0.85011705  1
  Li  Li18  1  0.33333333  0.13333333  0.75011705  1
  Li  Li19  1  0.33333333  0.46666667  0.75011705  1
  Li  Li20  1  0.33333333  0.80000000  0.75011705  1
  Li  Li21  1  0.66666667  0.13333333  0.75011705  1
  Li  Li22  1  0.66666667  0.46666667  0.75011705  1
  Li  Li23  1  0.66666667  0.80000000  0.75011705  1
  Li  Li24  1  0.00000000  0.13333333  0.75011705  1
  Li  Li25  1  0.00000000  0.46666667  0.75011705  1
  Li  Li26  1  0.00000000  0.80000000  0.75011705  1
  Ni  Ni27  1  0.33333333  0.16666667  0.95011705  1
  Ni  Ni28  1  0.33333333  0.50000000  0.95011705  1
  Ni  Ni29  1  0.33333333  0.83333333  0.95011705  1
  Ni  Ni30  1  0.66666667  0.16666667  0.95011705  1
  Ni  Ni31  1  0.66666667  0.50000000  0.95011705  1
  Ni  Ni32  1  0.66666667  0.83333333  0.95011705  1
  Ni  Ni33  1  1.00000000  0.16666667  0.95011705  1
  Ni  Ni34  1  0.00000000  0.50000000  0.95011705  1
  Ni  Ni35  1  0.00000000  0.83333333  0.95011705  1
  Ni  Ni36  1  0.16666667  0.23333333  0.85011705  1
  Ni  Ni37  1  0.16666667  0.56666667  0.85011705  1
  Ni  Ni38  1  0.16666667  0.90000000  0.85011705  1
  Ni  Ni39  1  0.50000000  0.23333333  0.85011705  1
  Ni  Ni40  1  0.50000000  0.56666667  0.85011705  1
  Ni  Ni41  1  0.50000000  0.90000000  0.85011705  1
  Ni  Ni42  1  0.83333333  0.23333333  0.85011705  1
  Ni  Ni43  1  0.83333333  0.56666667  0.85011705  1
  Ni  Ni44  1  0.83333333  0.90000000  0.85011705  1
  Ni  Ni45  1  0.33333333  0.30000000  0.75011705  1
  Ni  Ni46  1  0.33333333  0.63333333  0.75011705  1
  Ni  Ni47  1  0.33333333  0.96666667  0.75011705  1
  Ni  Ni48  1  0.66666667  0.30000000  0.75011705  1
  Ni  Ni49  1  0.66666667  0.63333333  0.75011705  1
  Ni  Ni50  1  0.66666667  0.96666667  0.75011705  1
  Ni  Ni51  1  0.00000000  0.30000000  0.75011705  1
  Ni  Ni52  1  0.00000000  0.63333333  0.75011705  1
  Ni  Ni53  1  0.00000000  0.96666667  0.75011705  1
  O  O54  1  0.16666667  0.24338827  0.94651065  1
  O  O55  1  0.16666667  0.57672160  0.94651065  1
  O  O56  1  0.16666667  0.91005493  0.94651065  1
  O  O57  1  0.50000000  0.24338827  0.94651065  1
  O  O58  1  0.50000000  0.57672160  0.94651065  1
  O  O59  1  0.50000000  0.91005493  0.94651065  1
  O  O60  1  0.83333333  0.24338827  0.94651065  1
  O  O61  1  0.83333333  0.57672160  0.94651065  1
  O  O62  1  0.83333333  0.91005493  0.94651065  1
  O  O63  1  0.00000000  0.15661173  0.85372345  1
  O  O64  1  0.00000000  0.48994507  0.85372345  1
  O  O65  1  0.00000000  0.82327840  0.85372345  1
  O  O66  1  0.33333333  0.15661173  0.85372345  1
  O  O67  1  0.33333333  0.48994507  0.85372345  1
  O  O68  1  0.33333333  0.82327840  0.85372345  1
  O  O69  1  0.66666667  0.15661173  0.85372345  1
  O  O70  1  0.66666667  0.48994507  0.85372345  1
  O  O71  1  0.66666667  0.82327840  0.85372345  1
  O  O72  1  0.00000000  0.31005493  0.84651065  1
  O  O73  1  0.00000000  0.64338827  0.84651065  1
  O  O74  1  0.00000000  0.97672160  0.84651065  1
  O  O75  1  0.33333333  0.31005493  0.84651065  1
  O  O76  1  0.33333333  0.64338827  0.84651065  1
  O  O77  1  0.33333333  0.97672160  0.84651065  1
  O  O78  1  0.66666667  0.31005493  0.84651065  1
  O  O79  1  0.66666667  0.64338827  0.84651065  1
  O  O80  1  0.66666667  0.97672160  0.84651065  1
  O  O81  1  0.16666667  0.22327840  0.75372345  1
  O  O82  1  0.16666667  0.55661173  0.75372345  1
  O  O83  1  0.16666667  0.88994507  0.75372345  1
  O  O84  1  0.50000000  0.22327840  0.75372345  1
  O  O85  1  0.50000000  0.55661173  0.75372345  1
  O  O86  1  0.50000000  0.88994507  0.75372345  1
  O  O87  1  0.83333333  0.22327840  0.75372345  1
  O  O88  1  0.83333333  0.55661173  0.75372345  1
  O  O89  1  0.83333333  0.88994507  0.75372345  1
  O  O90  1  0.16666667  0.04338827  0.74651065  1
  O  O91  1  0.16666667  0.37672160  0.74651065  1
  O  O92  1  0.16666667  0.71005493  0.74651065  1
  O  O93  1  0.50000000  0.04338827  0.74651065  1
  O  O94  1  0.50000000  0.37672160  0.74651065  1
  O  O95  1  0.50000000  0.71005493  0.74651065  1
  O  O96  1  0.83333333  0.04338827  0.74651065  1
  O  O97  1  0.83333333  0.37672160  0.74651065  1
  O  O98  1  0.83333333  0.71005493  0.74651065  1
  O  O99  1  0.33333333  0.28994507  0.65372345  1
  O  O100  1  0.33333333  0.62327840  0.65372345  1
  O  O101  1  0.33333333  0.95661173  0.65372345  1
  O  O102  1  0.66666667  0.28994507  0.65372345  1
  O  O103  1  0.66666667  0.62327840  0.65372345  1
  O  O104  1  0.66666667  0.95661173  0.65372345  1
  O  O105  1  0.00000000  0.28994507  0.65372345  1
  O  O106  1  0.00000000  0.62327840  0.65372345  1
  O  O107  1  0.00000000  0.95661173  0.65372345  1
