# generated using pymatgen
data_LiNiO2
_symmetry_space_group_name_H-M   'P 1'
_cell_length_a   8.71603685
_cell_length_b   18.50594153
_cell_length_c   26.98721890
_cell_angle_alpha   90.00000000
_cell_angle_beta   90.00000000
_cell_angle_gamma   90.00000000
_symmetry_Int_Tables_number   1
_chemical_formula_structural   LiNiO2
_chemical_formula_sum   'Li27 Ni27 O54'
_cell_volume   4352.99707226
_cell_formula_units_Z   27
loop_
 _symmetry_equiv_pos_site_id
 _symmetry_equiv_pos_as_xyz
  1  'x, y, z'
loop_
 _atom_site_type_symbol
 _atom_site_label
 _atom_site_symmetry_multiplicity
 _atom_site_fract_x
 _atom_site_fract_y
 _atom_site_fract_z
 _atom_site_occupancy
  Li  Li0  1  0.83333308  0.22222222  0.22926471  1
  Li  Li1  1  0.50000000  0.00000000  0.22926478  1
  Li  Li2  1  0.24869677  0.33246436  0.15284324  1
  Li  Li3  1  0.91536293  0.11024213  0.15284309  1
  Li  Li4  1  0.58202985  0.22135324  0.15284316  1
  Li  Li5  1  0.33072662  0.22048427  0.07642162  1
  Li  Li6  1  0.99739279  0.33159538  0.07642147  1
  Li  Li7  1  0.66405970  0.10937315  0.07642154  1
  Li  Li8  1  0.41275647  0.10850418  0.00000000  1
  Li  Li9  1  0.83333308  0.55555555  0.22926471  1
  Li  Li10  1  0.50000000  0.33333333  0.22926478  1
  Li  Li11  1  0.24869677  0.66579769  0.15284324  1
  Li  Li12  1  0.91536293  0.44357546  0.15284309  1
  Li  Li13  1  0.58202985  0.55468658  0.15284316  1
  Li  Li14  1  0.33072662  0.55381760  0.07642162  1
  Li  Li15  1  0.99739279  0.66492871  0.07642147  1
  Li  Li16  1  0.66405970  0.44270649  0.07642154  1
  Li  Li17  1  0.41275647  0.44183751  0.00000000  1
  Li  Li18  1  0.83333308  0.88888889  0.22926471  1
  Li  Li19  1  0.50000000  0.66666667  0.22926478  1
  Li  Li20  1  0.24869677  0.99913102  0.15284324  1
  Li  Li21  1  0.91536293  0.77690880  0.15284309  1
  Li  Li22  1  0.58202985  0.88801991  0.15284316  1
  Li  Li23  1  0.33072662  0.88715093  0.07642162  1
  Li  Li24  1  0.99739279  0.99826204  0.07642147  1
  Li  Li25  1  0.66405970  0.77603982  0.07642154  1
  Li  Li26  1  0.41275647  0.77517084  0.00000000  1
  Ni  Ni27  1  0.00000000  0.00000000  0.22926478  1
  Ni  Ni28  1  0.74869677  0.33246436  0.15284324  1
  Ni  Ni29  1  0.33333308  0.22222222  0.22926471  1
  Ni  Ni30  1  0.08202985  0.22135324  0.15284316  1
  Ni  Ni31  1  0.83072662  0.22048427  0.07642162  1
  Ni  Ni32  1  0.41536293  0.11024213  0.15284309  1
  Ni  Ni33  1  0.16405970  0.10937315  0.07642154  1
  Ni  Ni34  1  0.91275647  0.10850418  0.00000000  1
  Ni  Ni35  1  0.49739279  0.33159538  0.07642147  1
  Ni  Ni36  1  -0.00000000  0.33333333  0.22926478  1
  Ni  Ni37  1  0.74869677  0.66579769  0.15284324  1
  Ni  Ni38  1  0.33333308  0.55555555  0.22926471  1
  Ni  Ni39  1  0.08202985  0.55468658  0.15284316  1
  Ni  Ni40  1  0.83072662  0.55381760  0.07642162  1
  Ni  Ni41  1  0.41536293  0.44357546  0.15284309  1
  Ni  Ni42  1  0.16405970  0.44270649  0.07642154  1
  Ni  Ni43  1  0.91275647  0.44183751  0.00000000  1
  Ni  Ni44  1  0.49739279  0.66492871  0.07642147  1
  Ni  Ni45  1  -0.00000000  0.66666667  0.22926478  1
  Ni  Ni46  1  0.74869677  0.99913102  0.15284324  1
  Ni  Ni47  1  0.33333308  0.88888889  0.22926471  1
  Ni  Ni48  1  0.08202985  0.88801991  0.15284316  1
  Ni  Ni49  1  0.83072662  0.88715093  0.07642162  1
  Ni  Ni50  1  0.41536293  0.77690880  0.15284309  1
  Ni  Ni51  1  0.16405970  0.77603982  0.07642154  1
  Ni  Ni52  1  0.91275647  0.77517084  0.00000000  1
  Ni  Ni53  1  0.49739279  0.99826204  0.07642147  1
  O  O54  1  0.00390788  0.00260509  0.15521414  1
  O  O55  1  0.74478889  0.32985926  0.22689388  1
  O  O56  1  0.67057471  0.11371665  0.15521430  1
  O  O57  1  0.41145514  0.10763659  0.22689365  1
  O  O58  1  0.33724096  0.22482731  0.15521407  1
  O  O59  1  0.07812198  0.21874815  0.22689380  1
  O  O60  1  0.08593773  0.22395834  0.07879252  1
  O  O61  1  0.82681875  0.21787917  0.15047226  1
  O  O62  1  0.75260456  0.00173656  0.07879268  1
  O  O63  1  0.49348499  0.32898984  0.15047203  1
  O  O64  1  0.41927081  0.11284722  0.07879245  1
  O  O65  1  0.16015183  0.10676806  0.15047218  1
  O  O66  1  0.16796758  0.11197825  0.00237090  1
  O  O67  1  0.90884860  0.10589908  0.07405064  1
  O  O68  1  0.83463442  0.22308980  0.00237106  1
  O  O69  1  0.57551484  0.21700975  0.07405041  1
  O  O70  1  0.50130066  0.00086713  0.00237083  1
  O  O71  1  0.24218168  0.32812130  0.07405056  1
  O  O72  1  0.00390788  0.33593843  0.15521414  1
  O  O73  1  0.74478889  0.66319260  0.22689388  1
  O  O74  1  0.67057471  0.44704998  0.15521430  1
  O  O75  1  0.41145514  0.44096993  0.22689365  1
  O  O76  1  0.33724096  0.55816065  0.15521407  1
  O  O77  1  0.07812198  0.55208148  0.22689380  1
  O  O78  1  0.08593773  0.55729167  0.07879252  1
  O  O79  1  0.82681875  0.55121251  0.15047226  1
  O  O80  1  0.75260456  0.33506989  0.07879268  1
  O  O81  1  0.49348499  0.66232317  0.15047203  1
  O  O82  1  0.41927081  0.44618056  0.07879245  1
  O  O83  1  0.16015183  0.44010139  0.15047218  1
  O  O84  1  0.16796758  0.44531158  0.00237090  1
  O  O85  1  0.90884860  0.43923242  0.07405064  1
  O  O86  1  0.83463442  0.55642314  0.00237106  1
  O  O87  1  0.57551484  0.55034308  0.07405041  1
  O  O88  1  0.50130066  0.33420047  0.00237083  1
  O  O89  1  0.24218168  0.66145464  0.07405056  1
  O  O90  1  0.00390788  0.66927176  0.15521414  1
  O  O91  1  0.74478889  0.99652593  0.22689388  1
  O  O92  1  0.67057471  0.78038332  0.15521430  1
  O  O93  1  0.41145514  0.77430326  0.22689365  1
  O  O94  1  0.33724096  0.89149398  0.15521407  1
  O  O95  1  0.07812198  0.88541482  0.22689380  1
  O  O96  1  0.08593773  0.89062500  0.07879252  1
  O  O97  1  0.82681875  0.88454584  0.15047226  1
  O  O98  1  0.75260456  0.66840323  0.07879268  1
  O  O99  1  0.49348499  0.99565650  0.15047203  1
  O  O100  1  0.41927081  0.77951389  0.07879245  1
  O  O101  1  0.16015183  0.77343473  0.15047218  1
  O  O102  1  0.16796758  0.77864491  0.00237090  1
  O  O103  1  0.90884860  0.77256575  0.07405064  1
  O  O104  1  0.83463442  0.88975647  0.00237106  1
  O  O105  1  0.57551484  0.88367641  0.07405041  1
  O  O106  1  0.50130066  0.66753380  0.00237083  1
  O  O107  1  0.24218168  0.99478797  0.07405056  1
