# generated using pymatgen
data_LiNiO2
_symmetry_space_group_name_H-M   'P 1'
_cell_length_a   8.57199233
_cell_length_b   2.85733078
_cell_length_c   34.06156851
_cell_angle_alpha   90.00000000
_cell_angle_beta   90.00000000
_cell_angle_gamma   90.00000000
_symmetry_Int_Tables_number   1
_chemical_formula_structural   LiNiO2
_chemical_formula_sum   'Li27 Ni27 O54'
_cell_volume   834.27059422
_cell_formula_units_Z   27
loop_
 _symmetry_equiv_pos_site_id
 _symmetry_equiv_pos_as_xyz
  1  'x, y, z'
loop_
 _atom_site_type_symbol
 _atom_site_label
 _atom_site_symmetry_multiplicity
 _atom_site_fract_x
 _atom_site_fract_y
 _atom_site_fract_z
 _atom_site_occupancy
  Li  Li0  1  0.00000000  0.00000000  0.00000000  1
  Li  Li1  1  1.37424857  0.31632318  0.00000000  1
  Li  Li2  1  0.63456299  0.63264636  0.00000000  1
  Ni  Ni3  1  1.69153007  0.63264636  0.00000000  1
  Ni  Ni4  1  0.95184449  0.94896954  0.00000000  1
  Ni  Ni5  1  0.31728150  0.31632318  0.00000000  1
  O  O6  1  1.89125516  0.30488090  0.00214244  1
  O  O7  1  1.70205015  0.64313466  0.05726417  1
  O  O8  1  1.15156958  0.62120407  0.00214244  1
  O  O9  1  1.06748715  0.01048830  0.05726417  1
  O  O10  1  0.41188401  0.93752725  0.00214244  1
  O  O11  1  0.32780157  0.32681148  0.05726417  1
  Li  Li12  1  0.10512258  0.63169238  0.05940661  1
  Li  Li13  1  1.47937116  0.94801555  0.05940661  1
  Li  Li14  1  0.84480816  0.31536920  0.05940661  1
  Ni  Ni15  1  1.90177524  0.31536920  0.05940661  1
  Ni  Ni16  1  1.16208966  0.63169238  0.05940661  1
  Ni  Ni17  1  0.42240408  0.94801555  0.05940661  1
  O  O18  1  1.99637775  0.93657327  0.06154905  1
  O  O19  1  1.91229532  0.32585750  0.11667078  1
  O  O20  1  1.36181475  0.30392691  0.06154905  1
  O  O21  1  1.17260974  0.64218068  0.11667078  1
  O  O22  1  0.62212917  0.62025009  0.06154905  1
  O  O23  1  0.53804674  0.00953432  0.11667078  1
  Li  Li24  1  0.31536775  0.31441522  0.11881322  1
  Li  Li25  1  1.68961633  0.63073839  0.11881322  1
  Li  Li26  1  0.94993075  0.94706157  0.11881322  1
  Ni  Ni27  1  2.00689783  0.94706157  0.11881322  1
  Ni  Ni28  1  1.37233483  0.31441522  0.11881322  1
  Ni  Ni29  1  0.63264925  0.63073839  0.11881322  1
  O  O30  1  0.09268876  0.61929611  0.12095566  1
  O  O31  1  0.00860633  0.00858034  0.17607739  1
  O  O32  1  1.46693734  0.93561929  0.12095566  1
  O  O33  1  1.38285491  0.32490352  0.17607739  1
  O  O34  1  0.83237434  0.30297293  0.12095566  1
  O  O35  1  0.64316933  0.64122670  0.17607739  1
  Li  Li36  1  0.33333333  0.00000000  0.00000000  1
  Li  Li37  1  1.70758191  0.31632318  0.00000000  1
  Li  Li38  1  0.96789633  0.63264636  0.00000000  1
  Ni  Ni39  1  2.02486340  0.63264636  0.00000000  1
  Ni  Ni40  1  1.28517783  0.94896954  0.00000000  1
  Ni  Ni41  1  0.65061483  0.31632318  0.00000000  1
  O  O42  1  2.22458850  0.30488090  0.00214244  1
  O  O43  1  2.03538348  0.64313466  0.05726417  1
  O  O44  1  1.48490292  0.62120407  0.00214244  1
  O  O45  1  1.40082049  0.01048830  0.05726417  1
  O  O46  1  0.74521734  0.93752725  0.00214244  1
  O  O47  1  0.66113491  0.32681148  0.05726417  1
  Li  Li48  1  0.43845592  0.63169238  0.05940661  1
  Li  Li49  1  1.81270449  0.94801555  0.05940661  1
  Li  Li50  1  1.17814150  0.31536920  0.05940661  1
  Ni  Ni51  1  2.23510857  0.31536920  0.05940661  1
  Ni  Ni52  1  1.49542299  0.63169238  0.05940661  1
  Ni  Ni53  1  0.75573742  0.94801555  0.05940661  1
  O  O54  1  2.32971108  0.93657327  0.06154905  1
  O  O55  1  2.24562865  0.32585750  0.11667078  1
  O  O56  1  1.69514809  0.30392691  0.06154905  1
  O  O57  1  1.50594307  0.64218068  0.11667078  1
  O  O58  1  0.95546251  0.62025009  0.06154905  1
  O  O59  1  0.87138008  0.00953432  0.11667078  1
  Li  Li60  1  0.64870109  0.31441522  0.11881322  1
  Li  Li61  1  2.02294966  0.63073839  0.11881322  1
  Li  Li62  1  1.28326408  0.94706157  0.11881322  1
  Ni  Ni63  1  2.34023116  0.94706157  0.11881322  1
  Ni  Ni64  1  1.70566816  0.31441522  0.11881322  1
  Ni  Ni65  1  0.96598258  0.63073839  0.11881322  1
  O  O66  1  0.42602210  0.61929611  0.12095566  1
  O  O67  1  0.34193967  0.00858034  0.17607739  1
  O  O68  1  1.80027067  0.93561929  0.12095566  1
  O  O69  1  1.71618824  0.32490352  0.17607739  1
  O  O70  1  1.16570768  0.30297293  0.12095566  1
  O  O71  1  0.97650266  0.64122670  0.17607739  1
  Li  Li72  1  0.66666667  0.00000000  0.00000000  1
  Li  Li73  1  2.04091524  0.31632318  0.00000000  1
  Li  Li74  1  1.30122966  0.63264636  0.00000000  1
  Ni  Ni75  1  2.35819674  0.63264636  0.00000000  1
  Ni  Ni76  1  1.61851116  0.94896954  0.00000000  1
  Ni  Ni77  1  0.98394816  0.31632318  0.00000000  1
  O  O78  1  2.55792183  0.30488090  0.00214244  1
  O  O79  1  2.36871682  0.64313466  0.05726417  1
  O  O80  1  1.81823625  0.62120407  0.00214244  1
  O  O81  1  1.73415382  0.01048830  0.05726417  1
  O  O82  1  1.07855067  0.93752725  0.00214244  1
  O  O83  1  0.99446824  0.32681148  0.05726417  1
  Li  Li84  1  0.77178925  0.63169238  0.05940661  1
  Li  Li85  1  2.14603783  0.94801555  0.05940661  1
  Li  Li86  1  1.51147483  0.31536920  0.05940661  1
  Ni  Ni87  1  2.56844191  0.31536920  0.05940661  1
  Ni  Ni88  1  1.82875633  0.63169238  0.05940661  1
  Ni  Ni89  1  1.08907075  0.94801555  0.05940661  1
  O  O90  1  2.66304442  0.93657327  0.06154905  1
  O  O91  1  2.57896198  0.32585750  0.11667078  1
  O  O92  1  2.02848142  0.30392691  0.06154905  1
  O  O93  1  1.83927641  0.64218068  0.11667078  1
  O  O94  1  1.28879584  0.62025009  0.06154905  1
  O  O95  1  1.20471341  0.00953432  0.11667078  1
  Li  Li96  1  0.98203442  0.31441522  0.11881322  1
  Li  Li97  1  2.35628299  0.63073839  0.11881322  1
  Li  Li98  1  1.61659742  0.94706157  0.11881322  1
  Ni  Ni99  1  2.67356449  0.94706157  0.11881322  1
  Ni  Ni100  1  2.03900150  0.31441522  0.11881322  1
  Ni  Ni101  1  1.29931592  0.63073839  0.11881322  1
  O  O102  1  0.75935543  0.61929611  0.12095566  1
  O  O103  1  0.67527300  0.00858034  0.17607739  1
  O  O104  1  2.13360401  0.93561929  0.12095566  1
  O  O105  1  2.04952157  0.32490352  0.17607739  1
  O  O106  1  1.49904101  0.30297293  0.12095566  1
  O  O107  1  1.30983600  0.64122670  0.17607739  1
