# generated using pymatgen
data_LiNiO2
_symmetry_space_group_name_H-M   'P 1'
_cell_length_a   18.50594153
_cell_length_b   2.90534562
_cell_length_c   26.78306594
_cell_angle_alpha   90.00000000
_cell_angle_beta   90.00000000
_cell_angle_gamma   90.00000000
_symmetry_Int_Tables_number   1
_chemical_formula_structural   LiNiO2
_chemical_formula_sum   'Li9 Ni9 O18'
_cell_volume   1440.02250403
_cell_formula_units_Z   9
loop_
 _symmetry_equiv_pos_site_id
 _symmetry_equiv_pos_as_xyz
  1  'x, y, z'
loop_
 _atom_site_type_symbol
 _atom_site_label
 _atom_site_symmetry_multiplicity
 _atom_site_fract_x
 _atom_site_fract_y
 _atom_site_fract_z
 _atom_site_occupancy
  Li  Li0  1  0.83333310  0.66666700  0.37337033  1
  Li  Li1  1  0.50000000  0.00000000  0.37337025  1
  Li  Li2  1  0.26525694  0.33333300  0.45779003  1
  Li  Li3  1  0.93192314  0.66666700  0.45779020  1
  Li  Li4  1  0.59859004  0.00000000  0.45779011  1
  Li  Li5  1  0.36384698  0.33333300  0.54220989  1
  Li  Li6  1  0.03051318  0.66666700  0.54221006  1
  Li  Li7  1  0.69718008  0.00000000  0.54220997  1
  Li  Li8  1  0.46243702  0.33333300  0.62662975  1
  Ni  Ni9  1  0.00000000  0.00000000  0.37337025  1
  Ni  Ni10  1  0.76525694  0.33333300  0.45779003  1
  Ni  Ni11  1  0.33333310  0.66666700  0.37337033  1
  Ni  Ni12  1  0.09859004  0.00000000  0.45779011  1
  Ni  Ni13  1  0.86384698  0.33333300  0.54220989  1
  Ni  Ni14  1  0.43192314  0.66666700  0.45779020  1
  Ni  Ni15  1  0.19718008  0.00000000  0.54220997  1
  Ni  Ni16  1  0.96243702  0.33333300  0.62662975  1
  Ni  Ni17  1  0.53051318  0.66666700  0.54221006  1
  O  O18  1  0.01995428  0.33333300  0.45517098  1
  O  O19  1  0.74530266  0.00000000  0.37598929  1
  O  O20  1  0.68662109  0.66666700  0.45517082  1
  O  O21  1  0.41196895  0.33333300  0.37598954  1
  O  O22  1  0.35328738  0.00000000  0.45517107  1
  O  O23  1  0.07863576  0.66666700  0.37598938  1
  O  O24  1  0.11854432  0.33333300  0.53959085  1
  O  O25  1  0.84389270  0.00000000  0.46040915  1
  O  O26  1  0.78521113  0.66666700  0.53959068  1
  O  O27  1  0.51055899  0.33333300  0.46040941  1
  O  O28  1  0.45187742  0.00000000  0.53959093  1
  O  O29  1  0.17722580  0.66666700  0.46040924  1
  O  O30  1  0.21713436  0.33333300  0.62401071  1
  O  O31  1  0.94248274  0.00000000  0.54482902  1
  O  O32  1  0.88380117  0.66666700  0.62401054  1
  O  O33  1  0.60914903  0.33333300  0.54482927  1
  O  O34  1  0.55046746  0.00000000  0.62401079  1
  O  O35  1  0.27581584  0.66666700  0.54482910  1
