# generated using pymatgen
data_Li6Mn2Co(NiO4)3
_symmetry_space_group_name_H-M   'P 1'
_cell_length_a   5.71466156
_cell_length_b   11.46394888
_cell_length_c   26.37711884
_cell_angle_alpha   92.86984194
_cell_angle_beta   93.10483391
_cell_angle_gamma   90.00000000
_symmetry_Int_Tables_number   1
_chemical_formula_structural   Li6Mn2Co(NiO4)3
_chemical_formula_sum   'Li12 Mn4 Co2 Ni6 O24'
_cell_volume   1723.32634069
_cell_formula_units_Z   2
loop_
 _symmetry_equiv_pos_site_id
 _symmetry_equiv_pos_as_xyz
  1  'x, y, z'
loop_
 _atom_site_type_symbol
 _atom_site_label
 _atom_site_symmetry_multiplicity
 _atom_site_fract_x
 _atom_site_fract_y
 _atom_site_fract_z
 _atom_site_occupancy
  Li  Li0  1  0.50000000  0.50000000  0.98443321  1
  Li  Li1  1  0.50000000  1.00000000  0.98443321  1
  Li  Li2  1  0.00000000  0.50000000  0.98443321  1
  Li  Li3  1  1.00000000  1.00000000  0.98443321  1
  Li  Li4  1  0.23076923  0.11538462  0.90751013  1
  Li  Li5  1  0.23076923  0.61538462  0.90751013  1
  Li  Li6  1  0.73076923  0.11538462  0.90751013  1
  Li  Li7  1  0.73076923  0.61538462  0.90751013  1
  Li  Li8  1  0.46153846  0.23076923  0.83058705  1
  Li  Li9  1  0.46153846  0.73076923  0.83058705  1
  Li  Li10  1  0.96153846  0.23076923  0.83058705  1
  Li  Li11  1  0.96153846  0.73076923  0.83058705  1
  Mn  Mn12  1  0.50000000  0.25000000  0.98443321  1
  Co  Co13  1  0.50000000  0.75000000  0.98443321  1
  Ni  Ni14  1  1.00000000  0.25000000  0.98443321  1
  Mn  Mn15  1  1.00000000  0.75000000  0.98443321  1
  Mn  Mn16  1  0.23076923  0.36538462  0.90751013  1
  Ni  Ni17  1  0.23076923  0.86538462  0.90751013  1
  Ni  Ni18  1  0.73076923  0.36538462  0.90751013  1
  Ni  Ni19  1  0.73076923  0.86538462  0.90751013  1
  Ni  Ni20  1  0.46153846  0.48076923  0.83058705  1
  Ni  Ni21  1  0.46153846  0.98076923  0.83058705  1
  Co  Co22  1  0.96153846  0.48076923  0.83058705  1
  Mn  Mn23  1  0.96153846  0.98076923  0.83058705  1
  O  O24  1  0.24930646  0.36563723  0.98165905  1
  O  O25  1  0.24930646  0.86563723  0.98165905  1
  O  O26  1  0.74930646  0.36563723  0.98165905  1
  O  O27  1  0.74930646  0.86563723  0.98165905  1
  O  O28  1  0.48146277  0.24974738  0.91028429  1
  O  O29  1  0.48146277  0.74974738  0.91028429  1
  O  O30  1  0.98146277  0.24974738  0.91028429  1
  O  O31  1  0.98146277  0.74974738  0.91028429  1
  O  O32  1  0.48007569  0.48102185  0.90473598  1
  O  O33  1  0.48007569  0.98102185  0.90473598  1
  O  O34  1  0.98007569  0.48102185  0.90473598  1
  O  O35  1  0.98007569  0.98102185  0.90473598  1
  O  O36  1  0.21223200  0.36513200  0.83336121  1
  O  O37  1  0.21223200  0.86513200  0.83336121  1
  O  O38  1  0.71223200  0.36513200  0.83336121  1
  O  O39  1  0.71223200  0.86513200  0.83336121  1
  O  O40  1  0.21084492  0.09640646  0.82781290  1
  O  O41  1  0.21084492  0.59640646  0.82781290  1
  O  O42  1  0.71084492  0.09640646  0.82781290  1
  O  O43  1  0.71084492  0.59640646  0.82781290  1
  O  O44  1  0.44300123  0.48051662  0.75643813  1
  O  O45  1  0.44300123  0.98051662  0.75643813  1
  O  O46  1  0.94300123  0.48051662  0.75643813  1
  O  O47  1  0.94300123  0.98051662  0.75643813  1
