# generated using pymatgen
data_LiNiO2
_symmetry_space_group_name_H-M   'P 1'
_cell_length_a   2.85733078
_cell_length_b   5.73197444
_cell_length_c   20.42483770
_cell_angle_alpha   97.82147664
_cell_angle_beta   90.00000000
_cell_angle_gamma   90.00000000
_symmetry_Int_Tables_number   1
_chemical_formula_structural   LiNiO2
_chemical_formula_sum   'Li3 Ni3 O6'
_cell_volume   331.40891167
_cell_formula_units_Z   3
loop_
 _symmetry_equiv_pos_site_id
 _symmetry_equiv_pos_as_xyz
  1  'x, y, z'
loop_
 _atom_site_type_symbol
 _atom_site_label
 _atom_site_symmetry_multiplicity
 _atom_site_fract_x
 _atom_site_fract_y
 _atom_site_fract_z
 _atom_site_occupancy
  Li  Li0  1  1.00000000  0.00000000  0.00000000  1
  Li  Li1  1  0.50000000  0.20000000  0.90000000  1
  Li  Li2  1  1.00000000  0.40000000  0.80000000  1
  Ni  Ni3  1  1.00000000  0.50000000  0.00000000  1
  Ni  Ni4  1  0.50000000  0.70000000  0.90000000  1
  Ni  Ni5  1  1.00000000  0.90000000  0.80000000  1
  O  O6  1  0.50000000  0.73016480  0.99639360  1
  O  O7  1  0.00000000  0.46983520  0.90360640  1
  O  O8  1  0.00000000  0.93016480  0.89639360  1
  O  O9  1  0.50000000  0.66983520  0.80360640  1
  O  O10  1  0.50000000  0.13016480  0.79639360  1
  O  O11  1  1.00000000  0.86983520  0.70360640  1
