# generated using pymatgen
data_LiNiO2
_symmetry_space_group_name_H-M   'P 1'
_cell_length_a   8.71603685
_cell_length_b   18.50594153
_cell_length_c   26.78306594
_cell_angle_alpha   90.00000000
_cell_angle_beta   90.00000000
_cell_angle_gamma   90.00000000
_symmetry_Int_Tables_number   1
_chemical_formula_structural   LiNiO2
_chemical_formula_sum   'Li27 Ni27 O54'
_cell_volume   4320.06751209
_cell_formula_units_Z   27
loop_
 _symmetry_equiv_pos_site_id
 _symmetry_equiv_pos_as_xyz
  1  'x, y, z'
loop_
 _atom_site_type_symbol
 _atom_site_label
 _atom_site_symmetry_multiplicity
 _atom_site_fract_x
 _atom_site_fract_y
 _atom_site_fract_z
 _atom_site_occupancy
  Li  Li0  1  0.83333310  0.22222233  0.00000008  1
  Li  Li1  1  0.50000000  0.00000000  0.00000000  1
  Li  Li2  1  0.26525694  0.11111100  0.08441978  1
  Li  Li3  1  0.93192314  0.22222233  0.08441995  1
  Li  Li4  1  0.59859004  0.00000000  0.08441986  1
  Li  Li5  1  0.36384698  0.11111100  0.16883964  1
  Li  Li6  1  0.03051318  0.22222233  0.16883981  1
  Li  Li7  1  0.69718008  0.00000000  0.16883972  1
  Li  Li8  1  0.46243702  0.11111100  0.25325950  1
  Li  Li9  1  0.83333310  0.55555567  0.00000008  1
  Li  Li10  1  0.50000000  0.33333333  0.00000000  1
  Li  Li11  1  0.26525694  0.44444433  0.08441978  1
  Li  Li12  1  0.93192314  0.55555567  0.08441995  1
  Li  Li13  1  0.59859004  0.33333333  0.08441986  1
  Li  Li14  1  0.36384698  0.44444433  0.16883964  1
  Li  Li15  1  0.03051318  0.55555567  0.16883981  1
  Li  Li16  1  0.69718008  0.33333333  0.16883972  1
  Li  Li17  1  0.46243702  0.44444433  0.25325950  1
  Li  Li18  1  0.83333310  0.88888900  0.00000008  1
  Li  Li19  1  0.50000000  0.66666667  0.00000000  1
  Li  Li20  1  0.26525694  0.77777767  0.08441978  1
  Li  Li21  1  0.93192314  0.88888900  0.08441995  1
  Li  Li22  1  0.59859004  0.66666667  0.08441986  1
  Li  Li23  1  0.36384698  0.77777767  0.16883964  1
  Li  Li24  1  0.03051318  0.88888900  0.16883981  1
  Li  Li25  1  0.69718008  0.66666667  0.16883972  1
  Li  Li26  1  0.46243702  0.77777767  0.25325950  1
  Ni  Ni27  1  0.00000000  0.00000000  0.00000000  1
  Ni  Ni28  1  0.76525694  0.11111100  0.08441978  1
  Ni  Ni29  1  0.33333310  0.22222233  0.00000008  1
  Ni  Ni30  1  0.09859004  0.00000000  0.08441986  1
  Ni  Ni31  1  0.86384698  0.11111100  0.16883964  1
  Ni  Ni32  1  0.43192314  0.22222233  0.08441995  1
  Ni  Ni33  1  0.19718008  0.00000000  0.16883972  1
  Ni  Ni34  1  0.96243702  0.11111100  0.25325950  1
  Ni  Ni35  1  0.53051318  0.22222233  0.16883981  1
  Ni  Ni36  1  0.00000000  0.33333333  0.00000000  1
  Ni  Ni37  1  0.76525694  0.44444433  0.08441978  1
  Ni  Ni38  1  0.33333310  0.55555567  0.00000008  1
  Ni  Ni39  1  0.09859004  0.33333333  0.08441986  1
  Ni  Ni40  1  0.86384698  0.44444433  0.16883964  1
  Ni  Ni41  1  0.43192314  0.55555567  0.08441995  1
  Ni  Ni42  1  0.19718008  0.33333333  0.16883972  1
  Ni  Ni43  1  0.96243702  0.44444433  0.25325950  1
  Ni  Ni44  1  0.53051318  0.55555567  0.16883981  1
  Ni  Ni45  1  0.00000000  0.66666667  0.00000000  1
  Ni  Ni46  1  0.76525694  0.77777767  0.08441978  1
  Ni  Ni47  1  0.33333310  0.88888900  0.00000008  1
  Ni  Ni48  1  0.09859004  0.66666667  0.08441986  1
  Ni  Ni49  1  0.86384698  0.77777767  0.16883964  1
  Ni  Ni50  1  0.43192314  0.88888900  0.08441995  1
  Ni  Ni51  1  0.19718008  0.66666667  0.16883972  1
  Ni  Ni52  1  0.96243702  0.77777767  0.25325950  1
  Ni  Ni53  1  0.53051318  0.88888900  0.16883981  1
  O  O54  1  0.01995428  0.11111100  0.08180074  1
  O  O55  1  0.74530266  0.00000000  0.00261904  1
  O  O56  1  0.68662109  0.22222233  0.08180057  1
  O  O57  1  0.41196895  0.11111100  0.00261930  1
  O  O58  1  0.35328738  0.00000000  0.08180082  1
  O  O59  1  0.07863576  0.22222233  0.00261913  1
  O  O60  1  0.11854432  0.11111100  0.16622060  1
  O  O61  1  0.84389270  0.00000000  0.08703890  1
  O  O62  1  0.78521113  0.22222233  0.16622043  1
  O  O63  1  0.51055899  0.11111100  0.08703916  1
  O  O64  1  0.45187742  0.00000000  0.16622068  1
  O  O65  1  0.17722580  0.22222233  0.08703899  1
  O  O66  1  0.21713436  0.11111100  0.25064046  1
  O  O67  1  0.94248274  0.00000000  0.17145877  1
  O  O68  1  0.88380117  0.22222233  0.25064029  1
  O  O69  1  0.60914903  0.11111100  0.17145902  1
  O  O70  1  0.55046746  0.00000000  0.25064054  1
  O  O71  1  0.27581584  0.22222233  0.17145885  1
  O  O72  1  0.01995428  0.44444433  0.08180074  1
  O  O73  1  0.74530266  0.33333333  0.00261904  1
  O  O74  1  0.68662109  0.55555567  0.08180057  1
  O  O75  1  0.41196895  0.44444433  0.00261930  1
  O  O76  1  0.35328738  0.33333333  0.08180082  1
  O  O77  1  0.07863576  0.55555567  0.00261913  1
  O  O78  1  0.11854432  0.44444433  0.16622060  1
  O  O79  1  0.84389270  0.33333333  0.08703890  1
  O  O80  1  0.78521113  0.55555567  0.16622043  1
  O  O81  1  0.51055899  0.44444433  0.08703916  1
  O  O82  1  0.45187742  0.33333333  0.16622068  1
  O  O83  1  0.17722580  0.55555567  0.08703899  1
  O  O84  1  0.21713436  0.44444433  0.25064046  1
  O  O85  1  0.94248274  0.33333333  0.17145877  1
  O  O86  1  0.88380117  0.55555567  0.25064029  1
  O  O87  1  0.60914903  0.44444433  0.17145902  1
  O  O88  1  0.55046746  0.33333333  0.25064054  1
  O  O89  1  0.27581584  0.55555567  0.17145885  1
  O  O90  1  0.01995428  0.77777767  0.08180074  1
  O  O91  1  0.74530266  0.66666667  0.00261904  1
  O  O92  1  0.68662109  0.88888900  0.08180057  1
  O  O93  1  0.41196895  0.77777767  0.00261930  1
  O  O94  1  0.35328738  0.66666667  0.08180082  1
  O  O95  1  0.07863576  0.88888900  0.00261913  1
  O  O96  1  0.11854432  0.77777767  0.16622060  1
  O  O97  1  0.84389270  0.66666667  0.08703890  1
  O  O98  1  0.78521113  0.88888900  0.16622043  1
  O  O99  1  0.51055899  0.77777767  0.08703916  1
  O  O100  1  0.45187742  0.66666667  0.16622068  1
  O  O101  1  0.17722580  0.88888900  0.08703899  1
  O  O102  1  0.21713436  0.77777767  0.25064046  1
  O  O103  1  0.94248274  0.66666667  0.17145877  1
  O  O104  1  0.88380117  0.88888900  0.25064029  1
  O  O105  1  0.60914903  0.77777767  0.17145902  1
  O  O106  1  0.55046746  0.66666667  0.25064054  1
  O  O107  1  0.27581584  0.88888900  0.17145885  1
