# generated using pymatgen
data_LiNiO2
_symmetry_space_group_name_H-M   'P 1'
_cell_length_a   18.50594153
_cell_length_b   2.90534562
_cell_length_c   26.18721890
_cell_angle_alpha   90.00000000
_cell_angle_beta   90.00000000
_cell_angle_gamma   108.29988501
_symmetry_Int_Tables_number   1
_chemical_formula_structural   LiNiO2
_chemical_formula_sum   'Li9 Ni9 O18'
_cell_volume   1336.77876204
_cell_formula_units_Z   9
loop_
 _symmetry_equiv_pos_site_id
 _symmetry_equiv_pos_as_xyz
  1  'x, y, z'
loop_
 _atom_site_type_symbol
 _atom_site_label
 _atom_site_symmetry_multiplicity
 _atom_site_fract_x
 _atom_site_fract_y
 _atom_site_fract_z
 _atom_site_occupancy
  Li  Li0  1  0.83333308  0.66666666  0.38186575  1
  Li  Li1  1  0.50000000  0.00000000  0.38186567  1
  Li  Li2  1  0.24869677  0.99739307  0.46062184  1
  Li  Li3  1  0.91536293  0.33072639  0.46062200  1
  Li  Li4  1  0.58202985  0.66405973  0.46062192  1
  Li  Li5  1  0.33072662  0.66145280  0.53937808  1
  Li  Li6  1  0.99739279  0.99478613  0.53937824  1
  Li  Li7  1  0.66405970  0.32811946  0.53937816  1
  Li  Li8  1  0.41275647  0.32551253  0.61813433  1
  Ni  Ni9  1  0.00000000  0.00000000  0.38186567  1
  Ni  Ni10  1  0.74869677  0.99739307  0.46062184  1
  Ni  Ni11  1  0.33333308  0.66666666  0.38186575  1
  Ni  Ni12  1  0.08202985  0.66405973  0.46062192  1
  Ni  Ni13  1  0.83072662  0.66145280  0.53937808  1
  Ni  Ni14  1  0.41536293  0.33072639  0.46062200  1
  Ni  Ni15  1  0.16405970  0.32811946  0.53937816  1
  Ni  Ni16  1  0.91275647  0.32551253  0.61813433  1
  Ni  Ni17  1  0.49739279  0.99478613  0.53937824  1
  O  O18  1  0.00390788  0.00781528  0.45817851  1
  O  O19  1  0.74478889  0.98957779  0.38430901  1
  O  O20  1  0.67057471  0.34114995  0.45817835  1
  O  O21  1  0.41145514  0.32290978  0.38430924  1
  O  O22  1  0.33724096  0.67448194  0.45817858  1
  O  O23  1  0.07812198  0.65624445  0.38430909  1
  O  O24  1  0.08593773  0.67187501  0.53693475  1
  O  O25  1  0.82681875  0.65363752  0.46306525  1
  O  O26  1  0.75260456  0.00520968  0.53693459  1
  O  O27  1  0.49348499  0.98696951  0.46306549  1
  O  O28  1  0.41927081  0.33854167  0.53693483  1
  O  O29  1  0.16015183  0.32030418  0.46306533  1
  O  O30  1  0.16796758  0.33593474  0.61569099  1
  O  O31  1  0.90884860  0.31769725  0.54182149  1
  O  O32  1  0.83463442  0.66926941  0.61569083  1
  O  O33  1  0.57551484  0.65102924  0.54182173  1
  O  O34  1  0.50130066  0.00260140  0.61569107  1
  O  O35  1  0.24218168  0.98436391  0.54182157  1
